Geom Title=MRL Flowline Geometry
Program Version=4.10
Viewing Rectangle= 1158437.74974179 , 2254193.67804329 , 2952276.17138658 , 2299643.777507 

River Reach=Mississippi     ,main            
Reach XY= 2014 
1374082.263340842925600.590387461367359.215435252923108.73185413
1364634.946277512922364.733670211363786.034589512922032.11589713
1363252.873582342921798.671482131362493.707777842921428.32970313
1361772.928051422921030.566391041361307.999519342920748.41013121
1360851.775038092920451.606262871360404.721470252920142.47695988
1359970.361446592919825.943144121359552.276652842919506.97823088
1358963.542594092919034.882390291358601.889117922918731.65661879
1358114.647966422918306.531156711357704.329233252917931.89870388
1357372.612705092917614.285822041356952.039071172917183.34770754
1356388.232127922916562.818764881355745.906640922915872.48714029
1355560.486736172915659.40915437  1355387.9864252915445.00079054
1355233.112719012915229.340460711355096.334777342915007.69096962
1354976.315004252914773.280021121354871.714163592914519.35500404
  1354781.2041742914239.14362221 1354728.03302052914034.38878237
1354680.140727842913813.202544961354617.274711842913454.68718588
1354563.937876252913075.859531461354505.189306092912562.17683179
  1354352.5593622910859.575906291354298.286176582910087.03348812
 1354276.26620752909634.002570041354271.513592342909118.44192138
1354298.144444582908531.246573461354327.648322592908207.95128829
1354370.304733342907863.335507711354461.303895172907306.60138496
1354623.886247172906516.719106461354816.088946752905718.10685854
1355068.854517342904783.463058541355305.624713092903996.84192837
1355447.902643762903572.968760371355606.234348092903141.21109371
1355793.824852172902664.999119621356112.277955422901897.74606096
1356532.079609252900915.978995621356904.646121342900068.60634654
1357309.694523832899179.128466711357590.209054672898586.44100379
1357873.791492752898010.571092541358155.920193592897465.70899329
1358566.492863252896737.36235287 1358698.33216652896522.97564254
1358954.416300012896134.278257211359200.879061672895794.09192971
1359438.256211592895496.518705961359667.142564842895235.67375521
1359995.763298672894900.365370711360308.468053842894614.49750413
1360607.094753172894358.730299131361075.507858342893976.14116929
1361507.332782092893640.54177488 1362123.22689152893180.46362679
1362565.338212012892863.340573371362989.835066422892577.61214221
1363522.481638922892240.284404791364043.855596172891927.09933563
  1364477.8934422891679.932835211364937.419425842891433.33424704
1365252.886970752891274.161665131365732.176038422891050.66506488
1366051.403746422890916.034756711366368.339792332890794.06485629
1366839.121331092890631.685259791367610.412111332890403.16767221
1369675.682915172889873.54668421 1370327.27741252889714.86852388
1374798.445635512889682.659598791378661.292896672889812.86799979
1381265.459276252889986.479201131385041.500936752890160.09007438
1389066.612637172890247.015425461389589.990199332890284.56193829
  1389878.2678382890287.754189131390314.706925762890261.42451737
1390980.401788582890176.766222131391638.277113252890056.15622713
1392049.022026672889955.705312541392275.099330422889885.19429871
1392476.210148672889809.158689631392851.707101082889630.72433521
1393372.573513422889339.008711291394106.884052672888894.06143846
1394800.569673172888454.636136211395407.780729092888051.20616879
1395893.154102172887713.731778131396567.259053172887222.20553021
1397078.620563252886830.541943461397582.921063842886425.27274087
 1397912.64743852886144.17619021 1398237.18222252885848.17842263
1398556.519510342885531.878202211398870.713435752885189.86641904
1399025.863059832885007.631219211399330.650179922884623.97713088
1399624.342505922884225.696759461400034.209796422883629.73764954
1400393.746478922883075.08849638  1400694.3643162882584.91329563
1400866.087069672882278.763973541401018.740635752881975.11858346
1401155.657028592881661.950246541401339.445046832881146.65862621
1401513.500144922880527.260914881401765.791635092879434.78180062
1402158.602857342877521.410627381402321.740654422876661.48091679
1402472.454919922875809.241479541402600.142984762875005.99833538
1402696.077504172874284.516510621402732.125332342873952.38955021
1402782.427397092873331.709361121402806.461469752872750.94018146
1402807.540207752872188.236910541402772.935290092871332.65824113
1402726.879607922870742.358240631402620.409020332869832.19569087
1402522.695961172869212.632297461402402.137803342868585.74116279
1402256.684354092867947.486533791402082.758192762867280.73753921
1401760.202079342866186.36111904 1401352.30197652864922.92073254
1400519.420768252862452.844964041400024.924053842860951.26332154
1399737.859667342860026.826522131399501.748919082859200.07062971
1399310.150220922858461.844743961399152.269631172857794.58525171
1398303.964897332853895.789571621398091.382973422852820.87669521
1397817.786079672851214.41107612 1397668.56524952850414.53701971
1397465.431469422849457.482831461397293.085029332848727.34846496
  1396983.4111082847557.058810791396747.359742842846773.19981421
1396621.600151842846392.10182313 1396356.55999952845671.47039038
 1396218.13507952845338.754192291396076.685231172845025.05337613
1395787.882659172844451.302227041395496.471496592843943.29635329
1395351.780184922843711.793863541395068.361132342843289.46498379
1394797.904652252842915.611400791394538.601365092842582.69638421
1394279.997879672842282.520475381394147.556543512842142.14247529
1393869.595813332841875.645632961393721.341188592841747.46609929
1393399.539666842841496.20839971 1393035.85010552841248.61046971
1392835.599193672841126.398771871392392.977375512840885.89531587
1391887.085670752840651.563107381391309.418519012840424.58488679
1390654.394566592840206.194247461389940.348094422839998.39020113
  1389197.2337672839803.486719541388093.788467342839540.42326929
1385744.460160752839031.268447711385102.656654342838884.22149771
1384562.803731422838739.43274529 1384096.04121352838588.12858596
  1383668.0755342838424.440921211383100.373585422838176.83708571
1382658.804914762837962.300441291382210.465588342837717.80322688
1381911.459624672837535.848866381381468.754473342837233.60898529
1381182.139232922837017.799705621380773.476664422836683.87419238
1380285.802442922836242.733342381379971.680367752835923.37177638
1379702.407284252835608.222800371379477.943166262835291.13058679
1379296.691232172834964.087605711379197.004095582834734.05624162
 1379074.31897352834360.590125041378978.398233592833940.47744821
  1378933.2227992833626.907209211378914.048624752833280.52502796
1378930.966241842832896.111098621378956.110876592832688.00882454
1378994.055682582832468.444631131379046.071326582832236.75775854
 1379112.96062852831992.866514041379193.595309762831739.03500071
1379389.752725842831212.956000381379621.737826172830681.39571179
1379747.165068752830420.692821131380008.872222512829923.77649213
1380274.584289512829478.177645791380538.681530332829091.84344471
1380671.190451672828917.539659461380939.760780672828598.96713388
1381216.548612922828310.185231131381505.696984752828038.89968446
1381810.551361922827774.050476631382289.932949092827386.32126521
1382778.523179262827017.280336631383256.851618922826675.07367196
1383714.670257082826361.99227713 1384318.97383852825966.14300321
1385124.305889262825454.782477381385820.465914262825030.71245937
1386354.060319512824729.934189541386708.011711342824547.49656229
1387060.122883752824381.321697791387414.516531922824228.17633479
 1387775.47086252824084.686136211388338.545523762823880.18359246
1388934.428518342823681.597703541389340.569110252823555.63043579
1389942.042316762823384.81286404 1390325.56418752823287.96758529
1390685.906642672823208.180999461391019.516211672823144.76741238
1391466.030082422823075.466369871391951.788625342823019.53209854
1392323.201596422822992.522310041392657.899745922822990.61286504
1392938.529762092823004.516708621393274.383093012823032.38476313
1393986.037509592823118.196271291394902.400178172823261.00832162
1395864.388083582823435.610662711396516.843799672823572.35448371
1397152.901582672823728.757058041397748.167780592823899.82397313
1398397.713725592824111.131293291398966.890408752824311.32249396
  1399396.7015572824475.988831291401362.104778422825294.24867771
1401768.403834592825452.363518961402991.783933752825894.72385471
1403517.795348922826102.379935461404165.120169752826377.94172029
1404956.004086672826735.786148961405841.500019092827151.01169646
1407193.918574092827801.458886371409361.421128842828866.37571979
1409808.288017252829068.480630541410180.376183842829197.63391554
1410463.716168342829272.616049041410788.908431342829345.73893429
1411512.067418082829476.95225454 1412065.66243952829552.73622371
 1412589.42910852829602.542554541413236.354651922829631.30791696
1413685.860314592829628.263959791414254.909701422829594.78830496
 1414853.50332052829525.037460211415557.454340422829414.16563471
1416176.670621672829289.066475461416630.211381262829174.07720413
1417114.164809672829026.328155791417366.960892012828938.17282029
  1417626.5587982828839.590340291418160.083977672828615.48350504
  1418699.7180692828366.955130711419229.876129422828107.81719754
1420994.415251262827212.737622881421512.022155672826978.22792129
1421839.456212092826851.202256711422164.269210762826746.32188904
1422486.383395922826661.104539791422950.422822172826562.86654729
1423619.486444672826450.471758961423959.916866172826404.65656187
1424322.587072592826384.57228446   1424609.954282826390.73500179
1425153.678914342826436.766077711425819.481716592826530.65991879
1426554.375916092826673.618294291427056.088495342826796.74403229
1427551.235142832826942.204699371428287.418381752827198.32590629
1429037.724295842827492.932928631430102.657533422827932.96584121
1430677.378824922828178.190416381431287.093812842828453.13573262
1431936.741791752828768.463185961432631.271898752829134.84467104
1432996.894199012829340.496490711433765.210247672829798.18586404
1435000.981070092830585.241376541436321.256644762831467.42038646
1439107.444313842833376.474967291440420.491228422834266.36196704
1440808.721751172834521.922479541442201.006368172835104.39014662
1442992.673091922835396.056558041443784.339487592835590.50105104
1444652.395166172835757.167712461445457.950641672835757.16771246
1446027.395040842835729.389880881447332.950828672835451.61222121
   1448666.284122835007.167900131450457.950812252833118.27896138
1451888.506350092831229.390022621452360.728502752830521.05679363
1452888.506318582829798.834484791453319.061887922829076.61217596
1454478.517574252827249.838270461454884.098127922826338.54809829
1455294.212137092825371.627788041455786.234775092824163.65284179
1456082.556032842823402.179627211456332.449233842822713.33782904
1456485.131343172822257.957834291456710.687650582821527.06329871
1456938.029715592820716.934997711457085.493987592820144.59165421
1457291.915818842819258.224004381457414.805336842818660.42795588
1457578.569116922817758.933039711457886.249603922815896.48499296
  1458286.1428332813588.651025961458441.804267092812607.03783171
  1458529.8431332811970.835035881458847.463232672809307.97192329
1459063.733141342807713.973470871459372.318810252805698.78458788
 1459599.67367052804378.820692381459707.407050842803853.37850179
1459763.049984172803619.363877961459882.772185672803200.80762846
1460020.288314832802837.653827211460098.179563252802672.88020663
1460273.920025422802370.729236131460369.702970342802232.32728196
1460571.208472842801978.664075371460880.628457672801649.52136096
1461170.814885172801371.362140381461448.059081342801119.79637054
1461660.550454252800944.275396131461922.088645092800745.89423121
1462255.748738922800510.370424041462679.186540342800227.22138404
1463174.995916172799910.215784461463711.840314922799582.81388021
1464258.312975262799268.472317291464525.349842762799123.53822396
1464783.034366762798990.679893871465257.735517082798770.21543979
1465681.964983592798604.035982121466069.748984922798476.65205054
1466972.764239252798225.643694291467939.163553172797936.55831446
1468608.356768592797750.175485131469108.569678922797628.76890379
1469655.477705842797513.08245537 1471639.18108752797129.61307796
1472131.128266332797017.553590791472561.778323672796901.81760179
1472937.347126332796782.951041621473412.700178252796600.15810012
   1473803.477942796413.796596211474135.205294922796220.52664154
1474337.960466842796080.886172791474636.459541752795843.73047912
1474953.443815922795559.985311711475177.969613592795341.91258512
1475405.538712262795102.402565461475629.239708422794843.07270354
1475842.149715672794565.549308461475942.403124092794420.47577971
1476037.822224592794271.551864961476215.371082092793963.85759846
1476377.523316842793645.901869541476527.064684422793321.17417254
   1476733.865782792828.936639961476924.023864252792342.44450271
1477089.071106342791880.299429631477179.445597512791595.46535363
1477250.098671422791336.075452461477298.804610752791105.95353737
1477328.601467172790899.980524131477347.607990842790619.78423413
1477346.959042012790166.447870461477332.924621252789858.62401104
1477290.993930842789488.02862363 1477239.15807652789191.42160529
1477116.852874922788658.147081291476953.207532922788048.87730246
1476247.122987082785675.025094791475961.091078842784669.41162046
1475791.735118342784148.386415791475640.366326592783763.19361662
1475443.034700252783331.343430461475323.679624012783094.34488871
1475050.326824262782588.839338041474591.246377592781806.13322629
1474133.322096592781081.050358881473861.702889172780677.41435513
1473515.719001082780201.550149371472584.674931422779029.15452829
  1472132.2765582778421.68920779  1471660.4940372777733.62496712
1471357.459866172777247.661700211471214.390926582777000.46534421
1470949.600773752776505.02604638 1470605.11622652775784.64690971
1470409.760974172775339.359086381470098.736333762774592.18177496
 1469979.91668952774291.180080381469880.890640842774005.72297413
1469797.790413332773706.208153211469760.995539422773541.92304871
1469694.497640922773165.816189371469654.196212342772852.00973038
1469635.099137672772625.426522121469632.579457672772460.92127371
1469642.066643422772333.402827961469679.758497172772091.65003062
1469724.889968592771868.446736881469800.896378262771597.37017929
1469876.605216342771386.187202711469977.246419252771149.04660087
1470102.385276592770892.97099754  1470330.6738622770496.66470354
1470506.377906922770239.875518961470600.367876422770117.69859796
1470800.673578172769891.682645791470911.068698592769788.16480821
1471032.301067672769690.578389211471167.413658342769598.60186712
1471319.410401592769511.891410631471491.342144342769430.15502554
1471686.233486842769353.050849041471907.125761592769280.26556154
1472157.032742092769211.47698521 1472438.98657452769146.37245663
1473096.089919092769026.960621961473461.446471842768973.12509971
 1474239.66013852768878.50028896 1475046.40655652768802.96435079
1475839.934825092768748.59667737  1476579.9212062768717.27653004
1477256.841440092768706.858243791477890.787678762768711.39694862
1479747.100895262768753.661627871482384.151395422768780.70488087
  1483283.4156732768807.559814041485079.412409092768886.32573263
1485546.654912922768892.092453381486003.254721512768883.93991062
1486445.766631752768863.674859291487073.548840752768815.75172679
1487645.065742342768753.880131381488153.740249922768683.59483888
1488618.265239512768602.837454461489062.274522092768508.03482254
1489508.104011012768394.748631791489811.078470672768302.26915796
1490118.762894672768189.241168791490274.361336752768123.13500179
1490589.128423752767967.969957791490908.591039422767777.35354112
1491231.373530342767550.817576871491554.485745012767294.30463846
1492033.007425762766867.179180381492343.426424342766563.42224196
1492788.330390172766094.645292381493198.535934592765626.36702946
1493562.868539252765176.309858711493870.728487832764761.27952079
1494125.979617752764376.238624211494347.169464092763993.93459879
1494553.493854592763586.113235961494756.059394342763135.22043696
 1494941.53999452762656.002235291495046.862290422762331.04455188
1495131.336202842762008.89230904  1495191.1792592761694.72791113
  1495212.2776422761541.219359871495238.556460842761241.95683504
1495245.882561672760953.851440121495227.266129082760544.74825571
1495179.598245422760161.746725131495102.566903422759783.82064371
1494993.721976762759384.478922711494795.075064342758779.00211529
1494603.841522922758277.816765961494375.107072262757761.93000246
1494201.223561762757421.43691704  1493910.8707962756928.69380804
1493702.491947672756615.249553041493376.512612752756172.26749938
1493155.361808342755897.759518211492930.387848842755639.37912946
1492687.994632842755389.592555541492412.719264752755139.84141463
1492089.089334582754881.526642541491904.309520422754746.49115146
1491701.639978252754606.109542461491243.978163922754309.50285221
1490739.991311012754002.667507881490219.826668922753699.69272013
1489045.767993422753051.057206371488207.447819672752620.64468138
  1487085.5576752752083.35310504 1486483.68683152751785.59779504
1485792.651140092751422.186448381485279.705971762751136.02101021
1484733.229046342750816.790021371484180.357120592750480.49016904
1483402.800604842749982.119446621482774.704748172749543.25811962
1482613.049559672749418.836780541482355.076322342749198.88807346
1482253.395095252749100.086105711482091.270091422748916.60386113
1481966.282152422748741.030721461481802.407152092748464.43055287
1481587.342621592748059.648882121481447.081419172747761.61699788
1481343.505838922747498.33176329 1481284.40589152747276.55891288
1481266.517803922747139.240946041481266.045035842746927.84963654
1481303.126654592746597.613092291481354.902141592746317.96765421
1481426.079492672746032.474458791481516.311923762745760.14134204
1481592.568332922745588.629545961481690.183623252745421.64136288
1481816.663029092745255.903833461481893.058545592745172.48372471
1482076.857390592745002.525075131482304.848404422744828.92338821
1482434.341911842744743.010830381482721.396783922744578.26804962
1483041.910250512744430.032453711483391.169066422744306.77187346
1483575.097832422744257.16337688  1483764.8123482744216.68937646
1483960.946470172744185.431564961484164.250197422744163.39650404
1484595.407471592744146.914581631484824.769873752744152.46148654
1485314.861085172744191.07755104 1485851.80620552744266.33757113
1486437.318485922744377.111955871487055.452092172744517.91055879
1487685.816973172744682.179915291488307.975833842744863.32555037
1489181.733600752745152.459814631489716.631809172745353.51157787
1490242.676032672745568.768037131490790.116538842745806.20096121
1492447.723131752746548.774607291494203.843635252747347.84649996
1495764.465842092748088.614703461497515.987273422748962.72155104
1498743.464477262749596.736359131502056.207523672751336.52454621
1503150.746345092751892.91746229  1503649.7135232752127.95504996
1504016.862723092752281.29365404  1504165.3148542752334.64689379
1504420.525957762752409.394119621504776.858906512752481.27750604
1505140.873926512752523.42932463 1505386.48367152752533.00574904
1505756.541658422752516.116347131506002.442413342752482.16070637
1506244.701771332752429.293029961506363.449565342752395.65234921
1506594.172857172752313.779153381506813.173731512752212.14287371
1507017.229753842752090.443313961507204.691649252751949.70343796
1507292.466408092751873.194732711507456.789242172751710.00083338
1507607.052721172751536.118963291507808.532961262751262.69267287
1507984.953212092750980.614496881508141.186495422750687.71646063
1508282.251502012750380.293847131508412.377554092750056.46837929
1508563.407435752749625.812416461508694.895033672749165.61681454
1508759.760389512748853.089552461509033.645012332744380.67362854
1509061.696465422743756.751648041509506.919656342729647.09515613
1510127.013232422722383.429893461509855.584641422718597.49159921
1509775.744906092717150.096856211509716.850010752715999.35834404
1509674.338612842715410.776187871509561.424140512714235.81167429
1508706.656821172711640.920210541508255.267960172710599.25365871
1507074.712250422708377.031397131505616.378881012706154.80913554
1503949.712266842704036.753660381502803.878928592702439.53146113
1499416.423761262697683.703702461499265.609430342697525.43170929
1497910.243374672695213.093158131497556.076432092694421.42643438
1497172.944652422693292.521539961497035.243156172691863.09296837
1497118.576650922690508.92638538  1497368.5764792689529.75970854
1497993.576541332688342.25978696 1498889.41005152686967.25991229
1500306.076509512685967.259615711502963.347769752684947.49557913
1503314.280794922684896.73321346 1503845.10092752684844.64637538
1504377.988969342684828.030266871504732.106371342684840.55911321
1504908.307134422684854.790712041505083.716888582684874.72111838
1505433.232593752684931.880452881505965.833890752685057.76734021
1506527.494840922685226.485506711507360.463647422685510.95869104
1507837.704162752685693.639756121508376.857283922685924.42571187
1508994.355720842686219.866065871509706.632183422686596.52148054
1510102.546745922686819.719853041510954.062103262687321.17587113
1512219.490674762688097.968280791513699.979183582688739.69764037
1517040.786150252689393.445676711520515.104332832688952.67654512
  1521473.4377182688619.343222291525112.326437592687313.78743446
1527695.659853592685786.009650131528973.437809842684702.67651496
 1529640.10445552683619.343051711529945.659946752682452.67642179
1529973.437778342681341.565455041529445.659962512679786.00983913
1528924.462514092678646.94289154 1528644.01195952678413.35707263
1528327.547697422678175.893964881526831.656660342677745.08708371
1525720.545693582677675.642668791523706.656676752677536.75383896
1521484.434415172677432.587052541519435.823354922677675.64266879
1517248.323464842677988.142699961513695.255767842678750.73402254
1513374.301685342678852.320761621513103.175259092678927.97677829
1511084.548718922678591.565377631509945.659920592678258.23205479
1508528.993134512677813.787405631507528.993166012677313.78742138
1505751.215553592676286.009621291504362.326599082675424.89881071
1503028.993307752674480.454177291501836.783421842673394.38581137
  1501697.5678212673108.991040961501640.709010842672961.34599504
1501592.233714092672809.290524871501520.135433092672490.12712121
1501496.298210422672323.309869541501472.612562252671976.31548479
 1501472.56236552671796.590122461501495.551164672671425.80149396
1501548.690822172671041.386252291501631.250040262670645.37457712
1501742.790827672670240.993824211501809.321206422670036.80197538
1501963.658496172669626.681076461502051.371903422669421.64933429
1502247.685487172669013.921147131502356.192816092668812.10265313
1502471.484908332668611.952462871502721.980470342668216.54774188
1502856.926394672668021.250232211503145.633494422667635.26445562
1503458.626962922667255.271777291503794.948468752666881.03532104
 1504153.89164852666513.703378541504341.796128342666333.87893504
1504734.436419172665984.629961621504939.137781422665816.30680746
1505365.306548512665495.031531371505586.729662092665343.17028654
1506046.443637672665059.257468541506531.376394842664798.29440779
1506784.778447082664674.009879461507316.444706592664432.91685771
1508185.024334252664075.266326291509156.667732172663704.70571571
1509512.087296922663583.836862961509888.099012082663469.26130471
1510287.631677592663364.021029631510713.624263922663271.15080854
1511168.995728512663193.683115711511656.683729512663134.68159329
1512179.598366092663097.158374381512740.677952592663084.15741612
1513341.655425172663098.032060291513977.087225172663136.85777004
1514638.866085342663197.206402631515318.886378842663275.59830621
1516009.060523422663368.59615171  1517387.4380162663584.53010304
1518709.159782012663817.332458961519368.139107092663939.27315996
1523638.020987262664354.065309381526693.576555922664440.87091004
1530669.271032342664249.898522961532033.854261172663947.81546571
1535280.382216922662367.954124131538162.326584262660354.06543538
1539811.632012672659156.148539871540540.798861422658218.64877446
1541322.048939342656152.676528461541478.298626842655440.87086546
  1541514.3346442654459.240610881541391.530099592654135.87544396
1541232.092426342653807.937779621541034.975038422653477.58246921
1540799.119539012653146.993563461540666.575840842652982.19435238
1540375.385478342652653.609707711539885.736523262652162.26751454
 1539352.48660552651671.135294711539226.137120672651559.96655379
1537848.437776332650617.954330211536498.437523592649484.62096696
1534898.437770842648467.954365131533281.771056672647267.95414046
  1532133.9400192646465.294656541528575.520954752643551.75061487
1527742.187647672642458.000505791527221.354371762641833.00044346
1526631.076680922641051.750365541525832.465417252640027.44499946
1525276.909769842639211.47287812  1524947.0488812638517.02840088
1524617.187664082637596.889493131524391.493233582636624.66702813
1524339.410004422635537.861458961524356.770862092634548.27813629
1524408.854419342633871.194844791524651.910035592633089.94509496
1525051.215339342632135.083815711525407.416726672631475.68027887
1525862.012930332630983.756393961526087.146010262630754.09379554
1527933.160034752629409.389463961529339.409846922628628.13938604
1530554.687600082628228.833754211531526.909737012628107.30611013
1533028.323400842628269.519368381533455.674580252628498.26628621
1533956.908157842628797.002893461534330.391662842629035.92170696
1534587.551909672629217.893455871534829.895913172629411.53676938
 1535099.41243452629652.079923461535588.121102752630117.03010904
1536117.577392922630633.937211711536577.616499092631099.25813146
1537468.338470922632041.489186631538219.312690762632869.31331838
1539106.785981422633875.146936631541600.598579092636730.76819387
1543420.428272752638319.111473881543597.185137092638477.06457004
1545206.014596592639405.915730711546291.084276842640013.55460729
1548157.403706922640794.804685211549372.681460092641185.42956012
1551108.792489172641532.651634711553018.514719592641966.67963804
1555362.264625252642140.290511291557228.584055332642096.88803904
1558704.278610512642140.290511291559919.556363672641923.27683771
1561004.625715842641706.262836041562176.500668672641532.65163471
1562827.542345592641228.832360461563782.403624842640794.80468521
  1564867.4729772640187.165808631565865.737056592639449.31853104
1566473.375933172638928.485255131567471.639684672638017.02677621
1568556.709036832636975.360224371569403.713576422636221.55202071
1569606.590467252635957.265147711570296.206542092635024.66038562
 1574648.77428052627781.48983262 1577135.76536952622342.31206271
1577264.237553512621985.702539711577380.315733422621621.77938304
1577521.786579092621079.296216041577589.517414762620729.87565504
1577635.953345512620394.267074291577661.914579672620075.05741088
1577664.339443592619632.619647461577625.576725842619239.62273004
1577549.876089832618885.01746812 1577481.31979652618659.74331237
1577399.996468342618436.230964121577207.339701422617978.97137996
1577055.316055342617651.224332041576879.325921752617297.08921354
1576781.468505922617121.085300461576711.751125672617020.61929404
1576480.873962752616754.899353041575876.142232592616108.94493629
1575397.236366262615608.20085904   1574924.023732615128.64834046
1574523.644937592614746.208160461573810.975103092614115.70679679
1573127.476470092613471.991220711572813.477754262613193.69650171
1572596.268871082613020.890416881572245.519900672612774.16912554
1570276.058944592611528.072864461569628.781695842611106.35061079
1569074.524274172610734.011460461568551.831093842610354.69036871
1568363.913490672610199.199209881568142.744969762609983.97359046
1567965.526492172609766.51077079 1567869.13035952609615.15641471
1567828.388315012609537.333079541567763.415675922609377.04271771
1567739.812376672609294.416242541567711.978114752609123.85884088
1567708.113621172609036.016824961567710.581792092608947.11575604
1567732.765474752608768.737175791567774.952726332608593.90911337
1567833.615666752608427.820206711567944.767675422608206.19696229
1568030.306546342608080.02464246 1568123.21646552607968.52683396
1568273.317871342607822.782702871568486.244610842607654.38310529
1568704.231707672607503.690821381569071.052496342607267.99247387
1569232.375336422607173.961165881569419.653177092607082.83405154
1569741.735538172606964.446821131570064.797556092606876.45848004
1570331.623794092606817.369031291581747.677733592607032.25049129
1582560.416265582606848.728876711583128.734026592606914.49514937
  1592263.6780272605976.250306711593895.268267752606569.03094529
1594225.590441762606665.157721541594508.140729672606779.16766413
1594746.074308922606909.543715711594944.544712512607054.60674579
1595108.745827672607212.691403371595179.599032422607296.09117096
1595302.031202262607470.582619881595400.786254092607657.85094612
1595440.947591092607759.122069041595501.808033672607983.18395688
1595535.382769672608244.256597461595541.427048922608391.80387454
1595540.042537262608552.365889371595514.709254592608916.09022754
1595431.881992422609548.092900541595208.579945592610918.58950337
1595119.165754342611552.165992131595073.963416922611933.74659379
1595027.320793672612430.279721461595010.064594592612702.21159229
1595003.686654592613018.902231881595023.445145262613345.47900654
1595087.842654252613883.866053131595134.862901422614217.39753829
1595199.814871252614563.324339871595289.529586842614895.31514571
1595367.721359592615102.822932791595464.923593012615300.67030612
 1595584.81508552615490.284100131595731.134674752615673.09311771
1595815.348745172615762.396744881596005.959256342615936.52500554